[General]
network = Network
sim-time-limit = 200s

Network.nodeTx.gen.generationInterval=exponential(0.001)
Network.queue.serviceTime=exponential(0.001)
Network.nodeTx.gen.packetByteSize = 12500
Network.queue.buffersize = 200
Network.nodeRx.queue.buffersize = 200
Network.nodeTx.queue.buffersize = 2000000

